*SPEF "IEEE 1481-1998"
*DESIGN "top"
*DATE "Tue Sep 25 11:51:50 2012"
*VENDOR "handjob"
*PROGRAM "handjob"
*VERSION "0.0"
*DESIGN_FLOW "NETLIST_TYPE_VERILOG"
*DIVIDER /
*DELIMITER :
*BUS_DELIMITER [ ]
*T_UNIT 1 PS
*C_UNIT 1 FF
*R_UNIT 1 KOHM
*L_UNIT 1 UH

*POWER_NETS VDD
*GROUND_NETS VSS

*PORTS
in1 I
out1 O

*D_NET out1 16.6
*CONN
*I u1:Y O
*I u2:Y O
*I out1 O
*CAP
1 u1:Y 10
2 u2:Y 10
3 out1:1 10
4 out1 50
*RES
1 u1:Y out1:1 0.1
2 u2:Y out1:1 0.1
3 out1:1 out1 1.0
*END
