*SPEF "ieee 1481-1999"
*DESIGN "gcd"
*DATE "11:11:11 Fri 11 11, 1111"
*VENDOR "OpenRCX"
*PROGRAM "Parallel Extraction"
*VERSION "1.0"
*DESIGN_FLOW "NAME_SCOPE LOCAL" "PIN_CAP NONE"
*DIVIDER /
*DELIMITER :
*BUS_DELIMITER []
*T_UNIT 1 NS
*C_UNIT 1 PF
*R_UNIT 1 OHM
*L_UNIT 1 HENRY

*NAME_MAP
*1 _000_
*2 _001_
*3 _002_
*4 _003_
*5 _004_
*6 _005_
*7 _006_
*8 _007_
*9 _008_
*10 _009_
*11 _010_
*12 _011_
*13 _012_
*14 _013_
*15 _014_
*16 _015_
*17 _016_
*18 _017_
*19 _018_
*20 _019_
*21 _020_
*22 _021_
*23 _022_
*24 _023_
*25 _024_
*26 _025_
*27 _026_
*28 _027_
*29 _028_
*30 _029_
*31 _030_
*32 _031_
*33 _032_
*34 _033_
*35 _034_
*36 _035_
*37 _036_
*38 _037_
*39 _038_
*40 _039_
*41 _040_
*42 _041_
*43 _042_
*44 _043_
*45 _044_
*46 _045_
*47 _046_
*48 _047_
*49 _048_
*50 _049_
*51 _050_
*52 _051_
*53 _052_
*54 _053_
*55 _054_
*56 _055_
*57 _056_
*58 _057_
*59 _058_
*60 _059_
*61 _060_
*62 _061_
*63 _062_
*64 _063_
*65 _064_
*66 _065_
*67 _066_
*68 _067_
*69 _068_
*70 _069_
*71 _070_
*72 _071_
*73 _072_
*74 _073_
*75 _074_
*76 _075_
*77 _076_
*78 _077_
*79 _078_
*80 _079_
*81 _080_
*82 _081_
*83 _082_
*84 _083_
*85 _084_
*86 _085_
*87 _086_
*88 _087_
*89 _088_
*90 _089_
*91 _090_
*92 _091_
*93 _092_
*94 _093_
*95 _094_
*96 _095_
*97 _096_
*98 _097_
*99 _098_
*100 _099_
*101 _100_
*102 _101_
*103 net5
*104 net4
*105 _104_
*106 _105_
*107 _106_
*108 net3
*109 _108_
*110 _109_
*111 _110_
*112 _111_
*113 net2
*114 _113_
*115 net1
*116 _115_
*117 _116_
*118 clknet_2_3__leaf_clk
*119 clknet_2_2__leaf_clk
*120 _119_
*121 _120_
*122 _121_
*123 clknet_2_1__leaf_clk
*124 _123_
*125 _124_
*126 _125_
*127 _126_
*128 _127_
*129 clknet_2_0__leaf_clk
*130 _129_
*131 _130_
*132 _131_
*133 _132_
*134 _133_
*135 _134_
*136 _135_
*137 _136_
*138 _137_
*139 _138_
*140 _139_
*141 _140_
*142 _141_
*143 _142_
*144 _143_
*145 _144_
*146 _145_
*147 _146_
*148 _147_
*149 _148_
*150 _149_
*151 _150_
*152 clknet_0_clk
*153 _152_
*154 _153_
*156 _155_
*157 _156_
*159 _158_
*160 _159_
*161 _160_
*162 _161_
*163 _162_
*164 _163_
*165 _164_
*166 _165_
*167 _166_
*168 _167_
*169 _168_
*170 _169_
*171 _170_
*172 _171_
*173 _172_
*174 _173_
*175 _174_
*176 _175_
*177 _176_
*178 _177_
*179 _178_
*180 _179_
*181 _180_
*182 _181_
*183 _182_
*184 _183_
*185 _184_
*186 _185_
*187 _186_
*188 _187_
*189 _188_
*190 _189_
*191 _190_
*192 _191_
*193 _192_
*194 _193_
*195 _194_
*196 _195_
*197 _196_
*198 clk
*199 ctrl\.state\.out\[1\]
*200 ctrl\.state\.out\[2\]
*201 dpath\.a_lt_b\$in0\[0\]
*202 dpath\.a_lt_b\$in0\[10\]
*203 dpath\.a_lt_b\$in0\[11\]
*204 dpath\.a_lt_b\$in0\[12\]
*205 dpath\.a_lt_b\$in0\[13\]
*206 dpath\.a_lt_b\$in0\[14\]
*207 dpath\.a_lt_b\$in0\[15\]
*208 dpath\.a_lt_b\$in0\[1\]
*209 dpath\.a_lt_b\$in0\[2\]
*210 dpath\.a_lt_b\$in0\[3\]
*211 dpath\.a_lt_b\$in0\[4\]
*212 dpath\.a_lt_b\$in0\[5\]
*213 dpath\.a_lt_b\$in0\[6\]
*214 dpath\.a_lt_b\$in0\[7\]
*215 dpath\.a_lt_b\$in0\[8\]
*216 dpath\.a_lt_b\$in0\[9\]
*217 dpath\.a_lt_b\$in1\[0\]
*218 dpath\.a_lt_b\$in1\[10\]
*219 dpath\.a_lt_b\$in1\[11\]
*220 dpath\.a_lt_b\$in1\[12\]
*221 dpath\.a_lt_b\$in1\[13\]
*222 dpath\.a_lt_b\$in1\[14\]
*223 dpath\.a_lt_b\$in1\[15\]
*224 dpath\.a_lt_b\$in1\[1\]
*225 dpath\.a_lt_b\$in1\[2\]
*226 dpath\.a_lt_b\$in1\[3\]
*227 dpath\.a_lt_b\$in1\[4\]
*228 dpath\.a_lt_b\$in1\[5\]
*229 dpath\.a_lt_b\$in1\[6\]
*230 dpath\.a_lt_b\$in1\[7\]
*231 dpath\.a_lt_b\$in1\[8\]
*232 dpath\.a_lt_b\$in1\[9\]
*233 req_msg[0]
*234 req_msg[10]
*235 req_msg[11]
*236 req_msg[12]
*237 req_msg[13]
*238 req_msg[14]
*239 req_msg[15]
*240 req_msg[16]
*241 req_msg[17]
*242 req_msg[18]
*243 req_msg[19]
*244 req_msg[1]
*245 req_msg[20]
*246 req_msg[21]
*247 req_msg[22]
*248 req_msg[23]
*249 req_msg[24]
*250 req_msg[25]
*251 req_msg[26]
*252 req_msg[27]
*253 req_msg[28]
*254 req_msg[29]
*255 req_msg[2]
*256 req_msg[30]
*257 req_msg[31]
*258 req_msg[3]
*259 req_msg[4]
*260 req_msg[5]
*261 req_msg[6]
*262 req_msg[7]
*263 req_msg[8]
*264 req_msg[9]
*265 req_rdy
*266 req_val
*267 reset
*268 resp_msg[0]
*269 resp_msg[10]
*270 resp_msg[11]
*271 resp_msg[12]
*272 resp_msg[13]
*273 resp_msg[14]
*274 resp_msg[15]
*275 resp_msg[1]
*276 resp_msg[2]
*277 resp_msg[3]
*278 resp_msg[4]
*279 resp_msg[5]
*280 resp_msg[6]
*281 resp_msg[7]
*282 resp_msg[8]
*283 resp_msg[9]
*284 resp_rdy
*285 resp_val
*286 net6
*287 net7
*288 net8
*289 net9
*290 net10
*291 _197_
*292 _198_
*293 _199_
*294 _200_
*295 _201_
*296 _202_
*297 _203_
*298 _204_
*299 _205_
*300 _206_
*301 _207_
*302 _208_
*303 _209_
*304 _210_
*305 _211_
*306 _212_
*307 _213_
*308 _214_
*309 _215_
*310 _216_
*311 _217_
*312 _218_
*313 _219_
*314 _220_
*315 _221_
*316 _222_
*317 _223_
*318 _224_
*319 _225_
*320 _226_
*321 _227_
*322 _228_
*323 _229_
*324 _230_
*325 _231_
*326 _232_
*327 _233_
*328 _234_
*329 _235_
*330 _236_
*331 _237_
*332 _238_
*333 _239_
*334 _240_
*335 _241_
*336 _242_
*337 _243_
*338 _244_
*339 _245_
*340 _246_
*341 _247_
*342 _248_
*343 _249_
*344 _250_
*345 _251_
*346 _252_
*347 _253_
*348 _254_
*349 _255_
*350 _256_
*351 _257_
*352 _258_
*353 _259_
*354 _260_
*355 _261_
*356 _262_
*357 _263_
*358 _264_
*359 _265_
*360 _266_
*361 _267_
*362 _268_
*363 _269_
*364 _270_
*365 _271_
*366 _272_
*367 _273_
*368 _274_
*369 _275_
*370 _276_
*371 _277_
*372 _278_
*373 _279_
*374 TAP_11
*375 TAP_10
*376 _282_
*377 _283_
*378 _284_
*379 _285_
*380 _286_
*381 TAP_9
*382 _288_
*383 _289_
*384 _290_
*385 _291_
*386 _292_
*387 _293_
*388 TAP_8
*389 _295_
*390 TAP_7
*391 _297_
*392 _298_
*393 TAP_6
*394 TAP_5
*395 _301_
*396 _302_
*397 _303_
*398 _304_
*399 _305_
*400 TAP_4
*401 _307_
*402 _308_
*403 _309_
*404 _310_
*405 _311_
*406 _312_
*407 _313_
*408 TAP_3
*409 _315_
*410 _316_
*411 _317_
*412 _318_
*413 _319_
*414 _320_
*415 _321_
*416 _322_
*417 _323_
*418 _324_
*419 _325_
*420 _326_
*421 _327_
*422 _328_
*423 _329_
*424 _330_
*425 _331_
*426 _332_
*427 _333_
*428 _334_
*429 _335_
*430 _336_
*431 _337_
*432 _338_
*433 _339_
*434 _340_
*435 _341_
*436 _342_
*437 _343_
*438 _344_
*439 _345_
*440 _346_
*441 _347_
*442 _348_
*443 TAP_2
*444 _350_
*445 _351_
*446 TAP_1
*447 _353_
*448 _354_
*449 _355_
*450 TAP_0
*451 _357_
*452 _358_
*453 _359_
*454 _360_
*455 _361_
*456 _362_
*457 _363_
*458 _364_
*459 _365_
*460 _366_
*461 _367_
*462 _368_
*463 _369_
*464 _370_
*465 _371_
*466 _372_
*467 _373_
*468 _374_
*469 _375_
*470 _376_
*471 _377_
*472 _378_
*473 _379_
*474 _380_
*475 _381_
*476 _382_
*477 _383_
*478 _384_
*479 _385_
*480 _386_
*481 _387_
*482 _388_
*483 _389_
*484 _390_
*485 _391_
*486 _392_
*487 _393_
*488 _394_
*489 _395_
*490 _396_
*491 _397_
*492 _398_
*493 _399_
*494 _400_
*495 _401_
*496 _402_
*497 _403_
*498 _404_
*499 _405_
*500 _406_
*501 _407_
*502 _408_
*503 _409_
*504 _410_
*505 _411_
*506 _412_
*507 _413_
*508 _414_
*509 _415_
*510 _416_
*511 _417_
*512 _418_
*513 _419_
*514 _420_
*515 _421_
*516 _422_
*517 _423_
*518 _424_
*519 _425_
*520 _426_
*521 _427_
*522 _428_
*523 _429_
*524 _430_
*525 _431_
*526 _432_
*527 _433_
*528 _434_
*529 _435_
*530 _436_
*531 _437_
*532 _438_
*533 _439_
*534 _440_
*535 _441_
*536 _442_
*537 _443_
*538 _444_
*539 _445_
*540 TAP_12
*541 TAP_13
*542 TAP_14
*543 TAP_15
*544 TAP_16
*545 TAP_17
*546 TAP_18
*547 TAP_19
*548 TAP_20
*549 TAP_21
*550 TAP_22
*551 TAP_23
*552 TAP_24
*553 TAP_25
*554 TAP_26
*555 TAP_27
*556 TAP_28
*557 TAP_29
*558 TAP_30
*559 TAP_31
*560 TAP_32
*561 TAP_33
*562 TAP_34
*563 TAP_35
*564 TAP_36
*565 TAP_37
*566 TAP_38
*567 TAP_39
*568 TAP_40
*569 TAP_41
*570 TAP_42
*571 TAP_43
*572 TAP_44
*573 TAP_45
*574 TAP_46
*575 TAP_47
*576 TAP_48
*577 TAP_49
*578 TAP_50
*579 TAP_51
*580 TAP_52
*581 TAP_53
*582 TAP_54
*583 TAP_55
*584 TAP_56
*585 TAP_57
*586 TAP_58
*587 TAP_59
*588 TAP_60
*589 TAP_61
*590 TAP_62
*591 TAP_63
*592 TAP_64
*593 TAP_65
*594 TAP_66
*595 TAP_67
*596 TAP_68
*597 TAP_69
*598 TAP_70
*599 TAP_71
*600 TAP_72
*601 TAP_73
*602 TAP_74
*603 TAP_75
*604 TAP_76
*605 TAP_77
*606 TAP_78
*607 TAP_79
*608 TAP_80
*609 TAP_81
*610 TAP_82
*611 TAP_83
*612 TAP_84
*613 TAP_85
*614 TAP_86
*615 TAP_87
*616 TAP_88
*617 TAP_89
*618 TAP_90
*619 TAP_91
*620 TAP_92
*621 TAP_93
*622 TAP_94
*623 TAP_95
*624 TAP_96
*625 TAP_97
*626 TAP_98
*627 TAP_99
*628 TAP_100
*629 TAP_101
*630 TAP_102
*631 TAP_103
*632 TAP_104
*633 TAP_105
*634 TAP_106
*635 TAP_107
*636 TAP_108
*637 TAP_109
*638 TAP_110
*639 TAP_111
*640 TAP_112
*641 TAP_113
*642 TAP_114
*643 TAP_115
*644 TAP_116
*645 TAP_117
*646 TAP_118
*647 TAP_119
*648 TAP_120
*649 TAP_121
*650 TAP_122
*651 TAP_123
*652 TAP_124
*653 TAP_125
*654 TAP_126
*655 TAP_127
*656 TAP_128
*657 TAP_129
*658 TAP_130
*659 TAP_131
*660 TAP_132
*661 TAP_133
*662 TAP_134
*663 TAP_135
*664 TAP_136
*665 TAP_137
*666 TAP_138
*667 TAP_139
*668 TAP_140
*669 TAP_141
*670 TAP_142
*671 TAP_143
*672 TAP_144
*673 TAP_145
*674 TAP_146
*675 TAP_147
*676 TAP_148
*677 TAP_149
*678 TAP_150
*679 TAP_151
*680 TAP_152
*681 TAP_153
*682 TAP_154
*683 TAP_155
*684 TAP_156
*685 TAP_157
*686 TAP_158
*687 TAP_159
*688 TAP_160
*689 TAP_161
*690 TAP_162
*691 TAP_163
*692 TAP_164
*693 TAP_165
*694 TAP_166
*695 TAP_167
*696 TAP_168
*697 TAP_169
*698 TAP_170
*699 TAP_171
*700 TAP_172
*701 TAP_173
*702 TAP_174
*703 TAP_175
*704 TAP_176
*705 TAP_177
*706 TAP_178
*707 TAP_179
*708 TAP_180
*709 TAP_181
*710 TAP_182
*711 TAP_183
*712 TAP_184
*713 TAP_185
*714 TAP_186
*715 TAP_187
*716 TAP_188
*717 TAP_189
*718 TAP_190
*719 TAP_191
*720 TAP_192
*721 TAP_193
*722 TAP_194
*723 TAP_195
*724 TAP_196
*725 TAP_197
*726 TAP_198
*727 TAP_199
*728 TAP_200
*729 TAP_201
*730 TAP_202
*731 TAP_203
*732 TAP_204
*733 TAP_205
*734 TAP_206
*735 TAP_207
*736 TAP_208
*737 TAP_209
*738 TAP_210
*739 TAP_211
*740 TAP_212
*741 TAP_213
*742 TAP_214
*743 TAP_215
*744 TAP_216
*745 TAP_217
*746 TAP_218
*747 TAP_219
*748 TAP_220
*749 TAP_221
*750 TAP_222
*751 TAP_223
*752 TAP_224
*753 TAP_225
*754 TAP_226
*755 TAP_227
*756 TAP_228
*757 TAP_229
*758 TAP_230
*759 TAP_231
*760 TAP_232
*761 TAP_233
*762 TAP_234
*763 TAP_235
*764 TAP_236
*765 TAP_237
*766 TAP_238
*767 TAP_239
*768 TAP_240
*769 TAP_241
*770 TAP_242
*771 TAP_243
*772 TAP_244
*773 TAP_245
*774 TAP_246
*775 TAP_247
*776 TAP_248
*777 TAP_249
*778 TAP_250
*779 TAP_251
*780 TAP_252
*781 TAP_253
*782 TAP_254
*783 TAP_255
*784 TAP_256
*785 TAP_257
*786 TAP_258
*787 TAP_259
*788 TAP_260
*789 TAP_261
*790 TAP_262
*791 TAP_263
*792 TAP_264
*793 TAP_265
*794 TAP_266
*795 TAP_267
*796 TAP_268
*797 TAP_269
*798 TAP_270
*799 TAP_271
*800 TAP_272
*801 TAP_273
*802 TAP_274
*803 TAP_275
*804 TAP_276
*805 TAP_277
*806 TAP_278
*807 TAP_279
*808 TAP_280
*809 TAP_281
*810 TAP_282
*811 TAP_283
*812 TAP_284
*813 TAP_285
*814 TAP_286
*815 TAP_287
*816 TAP_288
*817 TAP_289
*818 TAP_290
*819 TAP_291
*820 TAP_292
*821 TAP_293
*822 TAP_294
*823 TAP_295
*824 TAP_296
*825 TAP_297
*826 TAP_298
*827 TAP_299
*828 TAP_300
*829 TAP_301
*830 TAP_302
*831 TAP_303
*832 TAP_304
*833 TAP_305
*834 TAP_306
*835 TAP_307
*836 TAP_308
*837 TAP_309
*838 TAP_310
*839 TAP_311
*840 TAP_312
*841 TAP_313
*842 TAP_314
*843 TAP_315
*844 TAP_316
*845 TAP_317
*846 TAP_318
*847 TAP_319
*848 TAP_320
*849 TAP_321
*850 TAP_322
*851 TAP_323
*852 TAP_324
*853 TAP_325
*854 TAP_326
*855 TAP_327
*856 TAP_328
*857 TAP_329
*858 TAP_330
*859 TAP_331
*860 TAP_332
*861 TAP_333
*862 TAP_334
*863 TAP_335
*864 TAP_336
*865 TAP_337
*866 TAP_338
*867 TAP_339
*868 TAP_340
*869 TAP_341
*870 TAP_342
*871 TAP_343
*872 TAP_344
*873 TAP_345
*874 TAP_346
*875 TAP_347
*876 TAP_348
*877 TAP_349
*878 TAP_350
*879 TAP_351
*880 TAP_352
*881 TAP_353
*882 TAP_354
*883 TAP_355
*884 TAP_356
*885 TAP_357
*886 TAP_358
*887 TAP_359
*888 TAP_360
*889 TAP_361
*890 TAP_362
*891 TAP_363
*892 TAP_364
*893 TAP_365
*894 TAP_366
*895 TAP_367
*896 TAP_368
*897 TAP_369
*898 TAP_370
*899 TAP_371
*900 TAP_372
*901 TAP_373
*902 TAP_374
*903 TAP_375
*904 TAP_376
*905 TAP_377
*906 TAP_378
*907 TAP_379
*908 TAP_380
*909 TAP_381
*910 TAP_382
*911 TAP_383
*912 TAP_384
*913 TAP_385
*914 TAP_386
*915 TAP_387
*916 TAP_388
*917 TAP_389
*918 TAP_390
*919 TAP_391
*920 TAP_392
*921 TAP_393
*922 TAP_394
*923 TAP_395
*924 TAP_396
*925 TAP_397
*926 TAP_398
*927 TAP_399
*928 TAP_400
*929 TAP_401
*930 TAP_402
*931 TAP_403
*932 TAP_404
*933 TAP_405
*934 TAP_406
*935 TAP_407
*936 TAP_408
*937 TAP_409
*938 TAP_410
*939 TAP_411
*940 TAP_412
*941 TAP_413
*942 TAP_414
*943 TAP_415
*944 TAP_416
*945 TAP_417
*946 TAP_418
*947 TAP_419
*948 TAP_420
*949 TAP_421
*950 TAP_422
*951 TAP_423
*952 TAP_424
*953 TAP_425
*954 TAP_426
*955 TAP_427
*956 TAP_428
*957 TAP_429
*958 TAP_430
*959 TAP_431
*960 TAP_432
*961 TAP_433
*962 TAP_434
*963 TAP_435
*964 TAP_436
*965 TAP_437
*966 TAP_438
*967 TAP_439
*968 TAP_440
*969 TAP_441
*970 TAP_442
*971 TAP_443
*972 TAP_444
*973 TAP_445
*974 TAP_446
*975 TAP_447
*976 TAP_448
*977 TAP_449
*978 TAP_450
*979 TAP_451
*980 TAP_452
*981 TAP_453
*982 TAP_454
*983 TAP_455
*984 TAP_456
*985 TAP_457
*986 TAP_458
*987 TAP_459
*988 TAP_460
*989 TAP_461
*990 TAP_462
*991 TAP_463
*992 TAP_464
*993 TAP_465
*994 TAP_466
*995 TAP_467
*996 TAP_468
*997 TAP_469
*998 TAP_470
*999 TAP_471
*1000 TAP_472
*1001 TAP_473
*1002 TAP_474
*1003 TAP_475
*1004 TAP_476
*1005 TAP_477
*1006 TAP_478
*1007 TAP_479
*1008 TAP_480
*1009 TAP_481
*1010 TAP_482
*1011 TAP_483
*1012 TAP_484
*1013 TAP_485
*1014 TAP_486
*1015 TAP_487
*1016 TAP_488
*1017 TAP_489
*1018 TAP_490
*1019 TAP_491
*1020 TAP_492
*1021 TAP_493
*1022 TAP_494
*1023 TAP_495
*1024 TAP_496
*1025 TAP_497
*1026 TAP_498
*1027 TAP_499
*1028 TAP_500
*1029 TAP_501
*1030 TAP_502
*1031 TAP_503
*1032 TAP_504
*1033 TAP_505
*1034 TAP_506
*1035 TAP_507
*1036 TAP_508
*1037 TAP_509
*1038 TAP_510
*1039 TAP_511
*1040 TAP_512
*1041 TAP_513
*1042 TAP_514
*1043 TAP_515
*1044 TAP_516
*1045 TAP_517
*1046 TAP_518
*1047 TAP_519
*1048 TAP_520
*1049 TAP_521
*1050 TAP_522
*1051 TAP_523
*1052 TAP_524
*1053 TAP_525
*1054 TAP_526
*1055 TAP_527
*1056 TAP_528
*1057 TAP_529
*1058 TAP_530
*1059 TAP_531
*1060 TAP_532
*1061 TAP_533
*1062 TAP_534
*1063 TAP_535
*1064 TAP_536
*1065 TAP_537
*1066 TAP_538
*1067 TAP_539
*1068 TAP_540
*1069 TAP_541
*1070 TAP_542
*1071 TAP_543
*1072 TAP_544
*1073 TAP_545
*1074 TAP_546
*1075 TAP_547
*1076 TAP_548
*1077 TAP_549
*1078 TAP_550
*1079 TAP_551
*1080 TAP_552
*1081 TAP_553
*1082 TAP_554
*1083 TAP_555
*1084 TAP_556
*1085 TAP_557
*1086 TAP_558
*1087 TAP_559
*1088 TAP_560
*1089 TAP_561
*1090 TAP_562
*1091 TAP_563
*1092 TAP_564
*1093 TAP_565
*1094 TAP_566
*1095 TAP_567
*1096 TAP_568
*1097 TAP_569
*1098 TAP_570
*1099 TAP_571
*1100 TAP_572
*1101 TAP_573
*1102 TAP_574
*1103 TAP_575
*1104 TAP_576
*1105 TAP_577
*1106 TAP_578
*1107 TAP_579
*1108 TAP_580
*1109 TAP_581
*1110 TAP_582
*1111 TAP_583
*1112 TAP_584
*1113 TAP_585
*1114 TAP_586
*1115 TAP_587
*1116 TAP_588
*1117 TAP_589
*1118 TAP_590
*1119 TAP_591
*1120 TAP_592
*1121 TAP_593
*1122 TAP_594
*1123 TAP_595
*1124 TAP_596
*1125 TAP_597
*1126 TAP_598
*1127 TAP_599
*1128 TAP_600
*1129 TAP_601
*1130 TAP_602
*1131 TAP_603
*1132 TAP_604
*1133 TAP_605
*1134 TAP_606
*1135 TAP_607
*1136 TAP_608
*1137 TAP_609
*1138 TAP_610
*1139 TAP_611
*1140 TAP_612
*1141 TAP_613
*1142 TAP_614
*1143 TAP_615
*1144 TAP_616
*1145 TAP_617
*1146 TAP_618
*1147 TAP_619
*1148 TAP_620
*1149 TAP_621
*1150 TAP_622
*1151 TAP_623
*1152 TAP_624
*1153 TAP_625
*1154 TAP_626
*1155 TAP_627
*1156 TAP_628
*1157 TAP_629
*1158 TAP_630
*1159 TAP_631
*1160 TAP_632
*1161 TAP_633
*1162 TAP_634
*1163 TAP_635
*1164 TAP_636
*1165 TAP_637
*1166 TAP_638
*1167 TAP_639
*1168 TAP_640
*1169 TAP_641
*1170 TAP_642
*1171 TAP_643
*1172 TAP_644
*1173 TAP_645
*1174 TAP_646
*1175 TAP_647
*1176 TAP_648
*1177 TAP_649
*1178 TAP_650
*1179 TAP_651
*1180 TAP_652
*1181 TAP_653
*1182 TAP_654
*1183 TAP_655
*1184 TAP_656
*1185 TAP_657
*1186 TAP_658
*1187 TAP_659
*1188 TAP_660
*1189 TAP_661
*1190 TAP_662
*1191 TAP_663
*1192 TAP_664
*1193 TAP_665
*1194 TAP_666
*1195 TAP_667
*1196 TAP_668
*1197 TAP_669
*1198 TAP_670
*1199 TAP_671
*1200 TAP_672
*1201 TAP_673
*1202 TAP_674
*1203 TAP_675
*1204 TAP_676
*1205 TAP_677
*1206 TAP_678
*1207 TAP_679
*1208 TAP_680
*1209 TAP_681
*1210 TAP_682
*1211 TAP_683
*1212 TAP_684
*1213 TAP_685
*1214 TAP_686
*1215 TAP_687
*1216 TAP_688
*1217 TAP_689
*1218 TAP_690
*1219 TAP_691
*1220 TAP_692
*1221 TAP_693
*1222 TAP_694
*1223 TAP_695
*1224 TAP_696
*1225 TAP_697
*1226 TAP_698
*1227 TAP_699
*1228 TAP_700
*1229 TAP_701
*1230 TAP_702
*1231 TAP_703
*1232 TAP_704
*1233 TAP_705
*1234 TAP_706
*1235 TAP_707
*1236 TAP_708
*1237 TAP_709
*1238 TAP_710
*1239 TAP_711
*1240 TAP_712
*1241 TAP_713
*1242 TAP_714
*1243 TAP_715
*1244 TAP_716
*1245 TAP_717
*1246 TAP_718
*1247 TAP_719
*1248 TAP_720
*1249 TAP_721
*1250 TAP_722
*1251 TAP_723
*1252 TAP_724
*1253 TAP_725
*1254 TAP_726
*1255 TAP_727
*1256 TAP_728
*1257 TAP_729
*1258 TAP_730
*1259 TAP_731
*1260 TAP_732
*1261 TAP_733
*1262 TAP_734
*1263 TAP_735
*1264 TAP_736
*1265 TAP_737
*1266 TAP_738
*1267 TAP_739
*1268 TAP_740
*1269 TAP_741
*1270 TAP_742
*1271 TAP_743
*1272 TAP_744
*1273 TAP_745
*1274 TAP_746
*1275 TAP_747
*1276 TAP_748
*1277 TAP_749
*1278 TAP_750
*1279 TAP_751
*1280 TAP_752
*1281 TAP_753
*1282 TAP_754
*1283 TAP_755
*1284 TAP_756
*1285 TAP_757
*1286 TAP_758
*1287 TAP_759
*1288 TAP_760
*1289 TAP_761
*1290 TAP_762
*1291 TAP_763
*1292 TAP_764
*1293 TAP_765
*1294 TAP_766
*1295 TAP_767
*1296 TAP_768
*1297 TAP_769
*1298 TAP_770
*1299 TAP_771
*1300 TAP_772
*1301 TAP_773
*1302 TAP_774
*1303 TAP_775
*1304 TAP_776
*1305 TAP_777
*1306 TAP_778
*1307 TAP_779
*1308 TAP_780
*1309 TAP_781
*1310 TAP_782
*1311 TAP_783
*1312 TAP_784
*1313 TAP_785
*1314 TAP_786
*1315 TAP_787
*1316 TAP_788
*1317 TAP_789
*1318 TAP_790
*1319 TAP_791
*1320 TAP_792
*1321 TAP_793
*1322 TAP_794
*1323 TAP_795
*1324 TAP_796
*1325 TAP_797
*1326 TAP_798
*1327 TAP_799
*1328 TAP_800
*1329 TAP_801
*1330 TAP_802
*1331 TAP_803
*1332 TAP_804
*1333 TAP_805
*1334 TAP_806
*1335 TAP_807
*1336 TAP_808
*1337 TAP_809
*1338 TAP_810
*1339 TAP_811
*1340 TAP_812
*1341 TAP_813
*1342 TAP_814
*1343 TAP_815
*1344 TAP_816
*1345 TAP_817
*1346 TAP_818
*1347 TAP_819
*1348 TAP_820
*1349 TAP_821
*1350 TAP_822
*1351 TAP_823
*1352 TAP_824
*1353 TAP_825
*1354 TAP_826
*1355 TAP_827
*1356 TAP_828
*1357 TAP_829
*1358 TAP_830
*1359 TAP_831
*1360 TAP_832
*1361 TAP_833
*1362 TAP_834
*1363 TAP_835
*1364 TAP_836
*1365 TAP_837
*1366 TAP_838
*1367 TAP_839
*1368 TAP_840
*1369 TAP_841
*1370 TAP_842
*1371 TAP_843
*1372 TAP_844
*1373 TAP_845
*1374 TAP_846
*1375 TAP_847
*1376 TAP_848
*1377 TAP_849
*1378 TAP_850
*1379 TAP_851
*1380 TAP_852
*1381 TAP_853
*1382 TAP_854
*1383 TAP_855
*1384 TAP_856
*1385 TAP_857
*1386 TAP_858
*1387 TAP_859
*1388 TAP_860
*1389 TAP_861
*1390 TAP_862
*1391 TAP_863
*1392 TAP_864
*1393 TAP_865
*1394 TAP_866
*1395 TAP_867
*1396 TAP_868
*1397 TAP_869
*1398 TAP_870
*1399 TAP_871
*1400 TAP_872
*1401 TAP_873
*1402 TAP_874
*1403 TAP_875
*1404 TAP_876
*1405 TAP_877
*1406 TAP_878
*1407 TAP_879
*1408 TAP_880
*1409 TAP_881
*1410 TAP_882
*1411 TAP_883
*1412 TAP_884
*1413 TAP_885
*1414 TAP_886
*1415 TAP_887
*1416 TAP_888
*1417 TAP_889
*1418 TAP_890
*1419 TAP_891
*1420 TAP_892
*1421 TAP_893
*1422 TAP_894
*1423 TAP_895
*1424 TAP_896
*1425 TAP_897
*1426 TAP_898
*1427 TAP_899
*1428 TAP_900
*1429 TAP_901
*1430 TAP_902
*1431 TAP_903
*1432 TAP_904
*1433 TAP_905
*1434 TAP_906
*1435 TAP_907
*1436 TAP_908
*1437 TAP_909
*1438 TAP_910
*1439 TAP_911
*1440 TAP_912
*1441 TAP_913
*1442 TAP_914
*1443 TAP_915
*1444 TAP_916
*1445 TAP_917
*1446 TAP_918
*1447 TAP_919
*1448 TAP_920
*1449 TAP_921
*1450 TAP_922
*1451 TAP_923
*1452 TAP_924
*1453 TAP_925
*1454 TAP_926
*1455 TAP_927
*1456 TAP_928
*1457 TAP_929
*1458 TAP_930
*1459 TAP_931
*1460 TAP_932
*1461 TAP_933
*1462 TAP_934
*1463 TAP_935
*1464 TAP_936
*1465 TAP_937
*1466 TAP_938
*1467 TAP_939
*1468 TAP_940
*1469 TAP_941
*1470 TAP_942
*1471 TAP_943
*1472 TAP_944
*1473 TAP_945
*1474 TAP_946
*1475 TAP_947
*1476 TAP_948
*1477 TAP_949
*1478 TAP_950
*1479 TAP_951
*1480 TAP_952
*1481 TAP_953
*1482 TAP_954
*1483 TAP_955
*1484 TAP_956
*1485 TAP_957
*1486 TAP_958
*1487 TAP_959
*1488 TAP_960
*1489 TAP_961
*1490 TAP_962
*1491 TAP_963
*1492 TAP_964
*1493 TAP_965
*1494 TAP_966
*1495 TAP_967
*1496 TAP_968
*1497 TAP_969
*1498 TAP_970
*1499 TAP_971
*1500 TAP_972
*1501 TAP_973
*1502 TAP_974
*1503 TAP_975
*1504 TAP_976
*1505 TAP_977
*1506 TAP_978
*1507 TAP_979
*1508 TAP_980
*1509 TAP_981
*1510 TAP_982
*1511 TAP_983
*1512 TAP_984
*1513 TAP_985
*1514 TAP_986
*1515 TAP_987
*1516 TAP_988
*1517 TAP_989
*1518 TAP_990
*1519 TAP_991
*1520 TAP_992
*1521 TAP_993
*1522 TAP_994
*1523 TAP_995
*1524 TAP_996
*1525 TAP_997
*1526 TAP_998
*1527 TAP_999
*1528 TAP_1000
*1529 TAP_1001
*1530 TAP_1002
*1531 TAP_1003
*1532 TAP_1004
*1533 TAP_1005
*1534 TAP_1006
*1535 TAP_1007
*1536 TAP_1008
*1537 TAP_1009
*1538 TAP_1010
*1539 TAP_1011
*1540 TAP_1012
*1541 TAP_1013
*1542 TAP_1014
*1543 TAP_1015
*1544 TAP_1016
*1545 TAP_1017
*1546 TAP_1018
*1547 TAP_1019
*1548 TAP_1020
*1549 TAP_1021
*1550 TAP_1022
*1551 TAP_1023
*1552 TAP_1024
*1553 TAP_1025
*1554 TAP_1026
*1555 TAP_1027
*1556 TAP_1028
*1557 TAP_1029
*1558 TAP_1030
*1559 TAP_1031
*1560 TAP_1032
*1561 TAP_1033
*1562 TAP_1034
*1563 TAP_1035
*1564 TAP_1036
*1565 TAP_1037
*1566 TAP_1038
*1567 TAP_1039
*1568 clkbuf_0_clk
*1569 clkbuf_2_0__f_clk
*1570 clkbuf_2_1__f_clk
*1571 clkbuf_2_2__f_clk
*1572 clkbuf_2_3__f_clk
*1573 split1
*1574 rebuffer2
*1575 rebuffer3
*1576 rebuffer4
*1577 rebuffer5
*1578 rebuffer6
*1579 rebuffer7
*1580 rebuffer8
*1581 rebuffer9
*1582 rebuffer10
*1583 ANTENNA_1
*1584 ANTENNA_2
*1585 ANTENNA_3
*1586 ANTENNA_4
*1587 ANTENNA_5
*1588 ANTENNA_6
*1589 ANTENNA_7
*1590 ANTENNA_8
*1591 ANTENNA_9
*1592 ANTENNA_10
*1593 FILLER_0_0
*1594 FILLER_0_8
*1595 FILLER_0_16
*1596 FILLER_0_24
*1597 FILLER_0_28
*1598 FILLER_0_31
*1599 FILLER_0_39
*1600 FILLER_0_47
*1601 FILLER_0_55
*1602 FILLER_0_59
*1603 FILLER_0_61
*1604 FILLER_0_69
*1605 FILLER_0_77
*1606 FILLER_0_85
*1607 FILLER_0_89
*1608 FILLER_0_91
*1609 FILLER_0_99
*1610 FILLER_0_107
*1611 FILLER_0_115
*1612 FILLER_0_119
*1613 FILLER_0_121
*1614 FILLER_0_129
*1615 FILLER_0_137
*1616 FILLER_0_145
*1617 FILLER_0_149
*1618 FILLER_0_151
*1619 FILLER_0_159
*1620 FILLER_0_167
*1621 FILLER_0_175
*1622 FILLER_0_179
*1623 FILLER_0_181
*1624 FILLER_0_189
*1625 FILLER_0_197
*1626 FILLER_0_205
*1627 FILLER_0_209
*1628 FILLER_0_211
*1629 FILLER_0_219
*1630 FILLER_0_227
*1631 FILLER_0_235
*1632 FILLER_0_239
*1633 FILLER_0_241
*1634 FILLER_0_249
*1635 FILLER_0_257
*1636 FILLER_0_265
*1637 FILLER_0_269
*1638 FILLER_0_271
*1639 FILLER_0_279
*1640 FILLER_0_287
*1641 FILLER_0_295
*1642 FILLER_0_299
*1643 FILLER_0_301
*1644 FILLER_0_309
*1645 FILLER_0_317
*1646 FILLER_0_325
*1647 FILLER_0_329
*1648 FILLER_0_331
*1649 FILLER_0_339
*1650 FILLER_0_347
*1651 FILLER_0_355
*1652 FILLER_0_359
*1653 FILLER_0_361
*1654 FILLER_0_369
*1655 FILLER_0_377
*1656 FILLER_0_385
*1657 FILLER_0_389
*1658 FILLER_0_391
*1659 FILLER_0_399
*1660 FILLER_0_407
*1661 FILLER_0_415
*1662 FILLER_0_419
*1663 FILLER_0_421
*1664 FILLER_0_429
*1665 FILLER_0_437
*1666 FILLER_0_445
*1667 FILLER_0_449
*1668 FILLER_0_451
*1669 FILLER_0_459
*1670 FILLER_0_467
*1671 FILLER_0_475
*1672 FILLER_0_479
*1673 FILLER_0_481
*1674 FILLER_0_489
*1675 FILLER_0_497
*1676 FILLER_0_505
*1677 FILLER_0_509
*1678 FILLER_0_511
*1679 FILLER_0_519
*1680 FILLER_0_527
*1681 FILLER_0_535
*1682 FILLER_0_539
*1683 FILLER_0_541
*1684 FILLER_0_549
*1685 FILLER_0_557
*1686 FILLER_0_565
*1687 FILLER_0_569
*1688 FILLER_0_571
*1689 FILLER_0_579
*1690 FILLER_0_587
*1691 FILLER_0_595
*1692 FILLER_0_599
*1693 FILLER_0_601
*1694 FILLER_0_605
*1695 FILLER_0_607
*1696 FILLER_1_0
*1697 FILLER_1_8
*1698 FILLER_1_16
*1699 FILLER_1_24
*1700 FILLER_1_32
*1701 FILLER_1_40
*1702 FILLER_1_48
*1703 FILLER_1_56
*1704 FILLER_1_61
*1705 FILLER_1_69
*1706 FILLER_1_77
*1707 FILLER_1_85
*1708 FILLER_1_93
*1709 FILLER_1_101
*1710 FILLER_1_109
*1711 FILLER_1_117
*1712 FILLER_1_119
*1713 FILLER_1_121
*1714 FILLER_1_129
*1715 FILLER_1_137
*1716 FILLER_1_145
*1717 FILLER_1_153
*1718 FILLER_1_161
*1719 FILLER_1_169
*1720 FILLER_1_177
*1721 FILLER_1_179
*1722 FILLER_1_181
*1723 FILLER_1_189
*1724 FILLER_1_197
*1725 FILLER_1_205
*1726 FILLER_1_213
*1727 FILLER_1_221
*1728 FILLER_1_229
*1729 FILLER_1_237
*1730 FILLER_1_239
*1731 FILLER_1_241
*1732 FILLER_1_249
*1733 FILLER_1_257
*1734 FILLER_1_265
*1735 FILLER_1_273
*1736 FILLER_1_281
*1737 FILLER_1_289
*1738 FILLER_1_297
*1739 FILLER_1_299
*1740 FILLER_1_301
*1741 FILLER_1_309
*1742 FILLER_1_317
*1743 FILLER_1_325
*1744 FILLER_1_333
*1745 FILLER_1_341
*1746 FILLER_1_349
*1747 FILLER_1_357
*1748 FILLER_1_359
*1749 FILLER_1_361
*1750 FILLER_1_369
*1751 FILLER_1_377
*1752 FILLER_1_385
*1753 FILLER_1_393
*1754 FILLER_1_401
*1755 FILLER_1_409
*1756 FILLER_1_417
*1757 FILLER_1_419
*1758 FILLER_1_421
*1759 FILLER_1_429
*1760 FILLER_1_437
*1761 FILLER_1_445
*1762 FILLER_1_453
*1763 FILLER_1_461
*1764 FILLER_1_469
*1765 FILLER_1_477
*1766 FILLER_1_479
*1767 FILLER_1_481
*1768 FILLER_1_489
*1769 FILLER_1_497
*1770 FILLER_1_505
*1771 FILLER_1_513
*1772 FILLER_1_521
*1773 FILLER_1_529
*1774 FILLER_1_537
*1775 FILLER_1_539
*1776 FILLER_1_541
*1777 FILLER_1_549
*1778 FILLER_1_557
*1779 FILLER_1_565
*1780 FILLER_1_573
*1781 FILLER_1_581
*1782 FILLER_1_589
*1783 FILLER_1_597
*1784 FILLER_1_599
*1785 FILLER_1_601
*1786 FILLER_1_605
*1787 FILLER_1_607
*1788 FILLER_2_0
*1789 FILLER_2_8
*1790 FILLER_2_16
*1791 FILLER_2_24
*1792 FILLER_2_28
*1793 FILLER_2_31
*1794 FILLER_2_39
*1795 FILLER_2_47
*1796 FILLER_2_55
*1797 FILLER_2_63
*1798 FILLER_2_71
*1799 FILLER_2_79
*1800 FILLER_2_87
*1801 FILLER_2_89
*1802 FILLER_2_91
*1803 FILLER_2_99
*1804 FILLER_2_107
*1805 FILLER_2_114
*1806 FILLER_2_122
*1807 FILLER_2_130
*1808 FILLER_2_138
*1809 FILLER_2_146
*1810 FILLER_2_151
*1811 FILLER_2_159
*1812 FILLER_2_167
*1813 FILLER_2_175
*1814 FILLER_2_183
*1815 FILLER_2_191
*1816 FILLER_2_199
*1817 FILLER_2_207
*1818 FILLER_2_209
*1819 FILLER_2_211
*1820 FILLER_2_219
*1821 FILLER_2_227
*1822 FILLER_2_231
*1823 FILLER_2_238
*1824 FILLER_2_246
*1825 FILLER_2_254
*1826 FILLER_2_262
*1827 FILLER_2_271
*1828 FILLER_2_279
*1829 FILLER_2_287
*1830 FILLER_2_295
*1831 FILLER_2_303
*1832 FILLER_2_311
*1833 FILLER_2_319
*1834 FILLER_2_327
*1835 FILLER_2_329
*1836 FILLER_2_331
*1837 FILLER_2_339
*1838 FILLER_2_347
*1839 FILLER_2_355
*1840 FILLER_2_363
*1841 FILLER_2_371
*1842 FILLER_2_379
*1843 FILLER_2_387
*1844 FILLER_2_389
*1845 FILLER_2_391
*1846 FILLER_2_399
*1847 FILLER_2_407
*1848 FILLER_2_411
*1849 FILLER_2_413
*1850 FILLER_2_419
*1851 FILLER_2_427
*1852 FILLER_2_435
*1853 FILLER_2_443
*1854 FILLER_2_447
*1855 FILLER_2_449
*1856 FILLER_2_451
*1857 FILLER_2_459
*1858 FILLER_2_467
*1859 FILLER_2_475
*1860 FILLER_2_483
*1861 FILLER_2_491
*1862 FILLER_2_499
*1863 FILLER_2_507
*1864 FILLER_2_509
*1865 FILLER_2_511
*1866 FILLER_2_519
*1867 FILLER_2_527
*1868 FILLER_2_535
*1869 FILLER_2_543
*1870 FILLER_2_551
*1871 FILLER_2_559
*1872 FILLER_2_567
*1873 FILLER_2_569
*1874 FILLER_2_571
*1875 FILLER_2_579
*1876 FILLER_2_587
*1877 FILLER_2_595
*1878 FILLER_2_603
*1879 FILLER_2_607
*1880 FILLER_3_0
*1881 FILLER_3_8
*1882 FILLER_3_16
*1883 FILLER_3_24
*1884 FILLER_3_32
*1885 FILLER_3_40
*1886 FILLER_3_48
*1887 FILLER_3_56
*1888 FILLER_3_61
*1889 FILLER_3_69
*1890 FILLER_3_77
*1891 FILLER_3_85
*1892 FILLER_3_93
*1893 FILLER_3_101
*1894 FILLER_3_109
*1895 FILLER_3_117
*1896 FILLER_3_119
*1897 FILLER_3_121
*1898 FILLER_3_129
*1899 FILLER_3_137
*1900 FILLER_3_145
*1901 FILLER_3_153
*1902 FILLER_3_161
*1903 FILLER_3_169
*1904 FILLER_3_177
*1905 FILLER_3_179
*1906 FILLER_3_181
*1907 FILLER_3_189
*1908 FILLER_3_197
*1909 FILLER_3_205
*1910 FILLER_3_213
*1911 FILLER_3_221
*1912 FILLER_3_229
*1913 FILLER_3_237
*1914 FILLER_3_239
*1915 FILLER_3_241
*1916 FILLER_3_249
*1917 FILLER_3_257
*1918 FILLER_3_265
*1919 FILLER_3_273
*1920 FILLER_3_281
*1921 FILLER_3_289
*1922 FILLER_3_297
*1923 FILLER_3_299
*1924 FILLER_3_301
*1925 FILLER_3_309
*1926 FILLER_3_317
*1927 FILLER_3_325
*1928 FILLER_3_333
*1929 FILLER_3_341
*1930 FILLER_3_349
*1931 FILLER_3_357
*1932 FILLER_3_359
*1933 FILLER_3_361
*1934 FILLER_3_369
*1935 FILLER_3_377
*1936 FILLER_3_385
*1937 FILLER_3_393
*1938 FILLER_3_401
*1939 FILLER_3_409
*1940 FILLER_3_417
*1941 FILLER_3_419
*1942 FILLER_3_421
*1943 FILLER_3_429
*1944 FILLER_3_437
*1945 FILLER_3_445
*1946 FILLER_3_453
*1947 FILLER_3_461
*1948 FILLER_3_469
*1949 FILLER_3_477
*1950 FILLER_3_479
*1951 FILLER_3_481
*1952 FILLER_3_489
*1953 FILLER_3_497
*1954 FILLER_3_505
*1955 FILLER_3_513
*1956 FILLER_3_521
*1957 FILLER_3_529
*1958 FILLER_3_537
*1959 FILLER_3_539
*1960 FILLER_3_541
*1961 FILLER_3_549
*1962 FILLER_3_557
*1963 FILLER_3_565
*1964 FILLER_3_573
*1965 FILLER_3_581
*1966 FILLER_3_589
*1967 FILLER_3_597
*1968 FILLER_3_599
*1969 FILLER_3_601
*1970 FILLER_3_605
*1971 FILLER_3_607
*1972 FILLER_4_0
*1973 FILLER_4_8
*1974 FILLER_4_16
*1975 FILLER_4_24
*1976 FILLER_4_28
*1977 FILLER_4_31
*1978 FILLER_4_39
*1979 FILLER_4_47
*1980 FILLER_4_55
*1981 FILLER_4_63
*1982 FILLER_4_71
*1983 FILLER_4_79
*1984 FILLER_4_87
*1985 FILLER_4_89
*1986 FILLER_4_91
*1987 FILLER_4_99
*1988 FILLER_4_107
*1989 FILLER_4_115
*1990 FILLER_4_123
*1991 FILLER_4_131
*1992 FILLER_4_139
*1993 FILLER_4_147
*1994 FILLER_4_149
*1995 FILLER_4_151
*1996 FILLER_4_159
*1997 FILLER_4_167
*1998 FILLER_4_175
*1999 FILLER_4_183
*2000 FILLER_4_191
*2001 FILLER_4_199
*2002 FILLER_4_207
*2003 FILLER_4_209
*2004 FILLER_4_211
*2005 FILLER_4_219
*2006 FILLER_4_227
*2007 FILLER_4_235
*2008 FILLER_4_243
*2009 FILLER_4_251
*2010 FILLER_4_259
*2011 FILLER_4_267
*2012 FILLER_4_269
*2013 FILLER_4_271
*2014 FILLER_4_279
*2015 FILLER_4_287
*2016 FILLER_4_295
*2017 FILLER_4_303
*2018 FILLER_4_311
*2019 FILLER_4_319
*2020 FILLER_4_327
*2021 FILLER_4_329
*2022 FILLER_4_331
*2023 FILLER_4_339
*2024 FILLER_4_347
*2025 FILLER_4_355
*2026 FILLER_4_363
*2027 FILLER_4_371
*2028 FILLER_4_379
*2029 FILLER_4_387
*2030 FILLER_4_389
*2031 FILLER_4_391
*2032 FILLER_4_399
*2033 FILLER_4_407
*2034 FILLER_4_415
*2035 FILLER_4_423
*2036 FILLER_4_431
*2037 FILLER_4_439
*2038 FILLER_4_447
*2039 FILLER_4_449
*2040 FILLER_4_451
*2041 FILLER_4_459
*2042 FILLER_4_467
*2043 FILLER_4_475
*2044 FILLER_4_483
*2045 FILLER_4_491
*2046 FILLER_4_499
*2047 FILLER_4_507
*2048 FILLER_4_509
*2049 FILLER_4_511
*2050 FILLER_4_519