*SPEF "IEEE 1481-1998"
*DESIGN "reg1"
*DATE "Fri Nov 20 13:23:00 2002"
*VENDOR "Parallax Software, Inc"
*PROGRAM "Handjob"
*VERSION "1.0.1c"
*DESIGN_FLOW "MISSING_NETS"
*DIVIDER /
*DELIMITER :
*BUS_DELIMITER [ ]
*T_UNIT 1.0 PS
*C_UNIT 1.0 FF
*R_UNIT 1.0 KOHM
*L_UNIT 1.0 UH

*POWER_NETS VDD
*GROUND_NETS VSS

*PORTS
in1 I
in2 I
clk1 I
clk2 I
clk3 I
out O

*D_NET in1 13.4
*CONN
*P in1 I
*I r1:D I *L .0036
*CAP
1 in1 6.7
2 r1:D 6.7
*RES
3 in1 r1:D 2.42
*END

*D_NET in2 13.4
*CONN
*P in2 I
*I r2:D I *L .0036
*CAP
1 in2 6.7
2 r2:D 6.7
*RES
3 in2 r2:D 2.42
*END

*D_NET clk1 13.4
*CONN
*P clk1 I
*I r1:CLK I *L .0036
*CAP
1 clk1 6.7
2 r1:CLK 6.7
*RES
3 clk1 r1:CLK 2.42
*END

*D_NET clk2 13.4
*CONN
*P clk2 I
*I r2:CLK I *L .0036
*CAP
1 clk2 6.7
2 r2:CLK 6.7
*RES
3 clk2 r2:CLK 2.42
*END

*D_NET clk3 13.4
*CONN
*P clk3 I
*I r3:CLK I *L .0036
*CAP
1 clk3 6.7
2 r3:CLK 6.7
*RES
3 clk3 r3:CLK 2.42
*END

*D_NET r1q 13.4
*CONN
*I r1:Q O
*I u2:A I *L .0086
*CAP
1 r1:Q 6.7
2 u2:A 6.7
*RES
3 r1:Q u2:A 2.42
*END

*D_NET r2q 13.4
*CONN
*I r2:Q O
*I u1:A I *L .0086
*CAP
1 r2:Q 6.7
2 u1:A 6.7
*RES
3 r2:Q u1:A 2.42
*END

*D_NET u1z 13.4
*CONN
*I u1:Y O
*I u2:B I *L .0086
*CAP
1 u1:Y 6.7
2 u2:B 6.7
*RES
3 u1:Y u2:B 2.42
*END

*D_NET u2z 13.4
*CONN
*I u2:Y O
*I r3:D I *L .0086
*CAP
1 u2:Y 6.7
2 r3:D 6.7
*RES
3 u2:Y r3:D 2.42
*END

*D_NET out 13.4
*CONN
*I r3:Q O
*P out O
*CAP
1 r3:Q 6.7
2 out 6.7
*RES
3 r3:Q out 2.42
*END
