*SPEF "ieee 1481-1999"
*DESIGN "I2cGpioExpanderTop"
*DATE "22:42:27 Thursday February 12, 2026"
*VENDOR "The OpenROAD Project"
*PROGRAM "OpenROAD"
*VERSION "26Q1-868-g3ee8d4d975"
*DESIGN_FLOW "NAME_SCOPE LOCAL" "PIN_CAP NONE"
*DIVIDER /
*DELIMITER :
*BUS_DELIMITER []
*T_UNIT 1 NS
*C_UNIT 1 PF
*R_UNIT 1 OHM
*L_UNIT 1 HENRY

*NAME_MAP
*1 _0000_
*2 _0001_
*3 _0002_
*4 _0003_
*5 _0004_
*6 _0005_
*7 _0006_
*8 _0007_
*9 _0008_
*10 _0009_
*11 _0010_
*12 _0011_
*13 _0012_
*14 _0013_
*15 _0014_
*16 _0015_
*17 _0016_
*18 _0017_
*19 _0018_
*20 _0019_
*21 _0020_
*22 _0021_
*23 _0022_
*24 _0023_
*25 _0024_
*26 _0025_
*27 _0026_
*28 _0027_
*29 _0028_
*30 _0029_
*31 _0030_
*32 _0031_
*33 _0032_
*34 _0033_
*35 _0034_
*36 _0035_
*37 _0036_
*38 _0037_
*39 _0038_
*40 _0039_
*41 _0040_
*42 _0041_
*43 _0042_
*44 _0043_
*45 _0044_
*46 _0045_
*47 _0046_
*48 _0047_
*49 _0048_
*50 _0049_
*51 _0050_
*52 _0051_
*53 _0052_
*54 _0053_
*55 _0054_
*56 _0055_
*57 _0056_
*58 _0057_
*59 _0058_
*60 _0059_
*61 _0060_
*62 _0061_
*63 _0062_
*64 _0063_
*65 _0064_
*66 _0065_
*67 _0066_
*68 _0067_
*69 _0068_
*70 _0069_
*71 _0070_
*72 _0071_
*73 _0072_
*74 _0073_
*75 _0074_
*76 _0075_
*77 _0076_
*78 _0077_
*79 _0078_
*80 _0079_
*81 _0080_
*82 _0081_
*83 _0082_
*84 _0083_
*85 _0084_
*86 _0085_
*87 _0086_
*88 _0087_
*89 _0088_
*90 _0089_
*91 _0090_
*92 _0091_
*93 _0092_
*94 _0093_
*95 _0094_
*96 _0095_
*97 _0096_
*98 _0097_
*99 _0098_
*100 _0099_
*101 _0100_
*102 _0101_
*103 _0102_
*104 _0103_
*105 _0104_
*106 net324
*107 _0106_
*108 _0107_
*109 _0108_
*110 clknet_4_8_0_clock_regs
*111 _0110_
*112 net323
*113 _0112_
*114 _0113_
*115 _0114_
*116 net322
*117 _0116_
*118 _0117_
*119 clknet_4_10_0_clock_regs
*120 _0119_
*121 net299
*122 net297
*123 _0122_
*124 clock_regs
*125 _0124_
*126 _0125_
*127 net298
*128 _0127_
*129 net329
*130 net316
*131 net315
*132 _0131_
*133 net314
*134 _0133_
*135 _0134_
*136 _0135_
*137 net313
*138 _0137_
*139 net312
*140 _0139_
*141 _0140_
*142 _0141_
*143 net311
*144 _0143_
*145 _0144_
*146 _0145_
*147 _0146_
*148 net310
*149 clknet_4_7_0_clock_regs
*150 net309
*151 _0150_
*152 _0151_
*153 clknet_4_5_0_clock_regs
*154 _0153_
*155 _0154_
*156 _0155_
*157 _0156_
*158 clknet_0_clock
*159 _0158_
*160 _0159_
*161 _0160_
*162 net317
*163 _0162_
*164 _0163_
*165 _0164_
*166 _0165_
*167 _0166_
*168 _0167_
*169 net308
*170 _0169_
*171 net307
*172 _0171_
*173 _0172_
*174 _0173_
*175 _0174_
*176 net306
*177 _0176_
*178 _0177_
*179 _0178_
*180 clknet_4_4_0_clock_regs
*181 net318
*182 _0181_
*183 _0182_
*184 _0183_
*185 _0184_
*186 _0185_
*187 _0186_
*188 _0187_
*189 _0188_
*190 _0189_
*191 _0190_
*192 _0191_
*193 _0192_
*194 net303
*195 _0194_
*196 _0195_
*197 _0196_
*198 _0197_
*199 _0198_
*200 clknet_0_clock_regs
*201 clknet_1_0__leaf_clock
*202 _0201_
*203 _0202_
*204 _0203_
*205 _0204_
*206 _0205_
*207 _0206_
*208 _0207_
*209 _0208_
*210 _0209_
*211 _0210_
*212 _0211_
*213 _0212_
*214 _0213_
*215 _0214_
*216 _0215_
*217 _0216_
*218 net302
*219 clknet_4_2_0_clock_regs
*220 _0219_
*221 net305
*222 net304
*223 net300
*224 _0223_
*225 _0224_
*226 net320
*227 _0226_
*228 _0227_
*229 _0228_
*230 _0229_
*231 _0230_
*232 _0231_
*233 _0232_
*234 _0233_
*235 _0234_
*236 _0235_
*237 _0236_
*238 _0237_
*239 _0238_
*240 _0239_
*241 _0240_
*242 _0241_
*243 _0242_
*244 _0243_
*245 _0244_
*246 _0245_
*247 _0246_
*248 _0247_
*249 _0248_
*250 _0249_
*251 _0250_
*252 net319
*253 net295
*254 _0253_
*255 _0254_
*256 _0255_
*257 _0256_
*258 _0257_
*259 _0258_
*260 _0259_
*261 _0260_
*262 _0261_
*263 _0262_
*264 _0263_
*265 _0264_
*266 _0265_
*267 _0266_
*268 _0267_
*269 _0268_
*270 _0269_
*271 _0270_
*272 net294
*273 _0272_
*274 _0273_
*275 _0274_
*276 _0275_
*277 _0276_
*278 net293
*279 _0278_
*280 _0279_
*281 _0280_
*282 _0281_
*283 _0282_
*284 _0283_
*285 _0284_
*286 _0285_
*287 _0286_
*288 _0287_
*289 _0288_
*290 _0289_
*291 _0290_
*292 _0291_
*293 _0292_
*294 _0293_
*295 _0294_
*296 _0295_
*297 _0296_
*298 net301
*299 net292
*300 _0299_
*301 _0300_
*302 _0301_
*303 _0302_
*304 net296
*305 _0304_
*306 _0305_
*307 _0306_
*308 _0307_
*309 _0308_
*310 _0309_
*311 _0310_
*312 _0311_
*313 _0312_
*314 _0313_
*315 _0314_
*316 _0315_
*317 _0316_
*318 _0317_
*319 _0318_
*320 _0319_
*321 _0320_
*322 _0321_
*323 net291
*324 _0323_
*325 _0324_
*326 _0325_
*327 _0326_
*328 _0327_
*329 _0328_
*330 _0329_
*331 net290
*332 _0331_
*333 _0332_
*334 _0333_
*335 _0334_
*336 _0335_
*337 _0336_
*338 _0337_
*339 _0338_
*340 _0339_
*341 _0340_
*342 _0341_
*343 _0342_
*344 _0343_
*345 net289
*346 _0345_
*347 _0346_
*348 _0347_
*349 _0348_
*350 _0349_
*351 _0350_
*352 _0351_
*353 net287
*354 _0353_
*355 net288
*356 _0355_
*357 _0356_
*358 _0357_
*359 _0358_
*360 _0359_
*361 _0360_
*362 _0361_
*363 _0362_
*364 _0363_
*365 _0364_
*366 _0365_
*367 _0366_
*368 _0367_
*369 _0368_
*370 _0369_
*371 _0370_
*372 _0371_
*373 _0372_
*374 _0373_
*375 _0374_
*376 _0375_
*377 _0376_
*378 _0377_
*379 _0378_
*380 net286
*381 net284
*382 _0381_
*383 _0382_
*384 _0383_
*385 _0384_
*386 _0385_
*387 _0386_
*388 _0387_
*389 _0388_
*390 _0389_
*391 _0390_
*392 _0391_
*393 _0392_
*394 _0393_
*395 _0394_
*396 _0395_
*397 _0396_
*398 _0397_
*399 _0398_
*400 _0399_
*401 _0400_
*402 net285
*403 _0402_
*404 _0403_
*405 _0404_
*406 _0405_
*407 _0406_
*408 _0407_
*409 _0408_
*410 _0409_
*411 net281
*412 _0411_
*413 _0412_
*414 _0413_
*415 _0414_
*416 _0415_
*417 _0416_
*418 _0417_
*419 _0418_
*420 _0419_
*421 _0420_
*422 _0421_
*423 _0422_
*424 net283
*425 _0424_
*426 _0425_
*427 _0426_
*428 _0427_
*429 _0428_
*430 _0429_
*431 _0430_
*432 net280
*433 _0432_
*434 _0433_
*435 _0434_
*436 _0435_
*437 _0436_
*438 _0437_
*439 _0438_
*440 _0439_
*441 _0440_
*442 _0441_
*443 _0442_
*444 _0443_
*445 _0444_
*446 net282
*447 _0446_
*448 _0447_
*449 _0448_
*450 _0449_
*451 _0450_
*452 _0451_
*453 _0452_
*454 _0453_
*455 _0454_
*456 _0455_
*457 _0456_
*458 _0457_
*459 _0458_
*460 _0459_
*461 _0460_
*462 _0461_
*463 _0462_
*464 _0463_
*465 _0464_
*466 _0465_
*467 _0466_
*468 _0467_
*469 _0468_
*470 _0469_
*471 _0470_
*472 _0471_
*473 _0472_
*474 _0473_
*475 _0474_
*476 _0475_
*477 _0476_
*478 _0477_
*479 _0478_
*480 _0479_
*481 _0480_
*482 _0481_
*483 _0482_
*484 _0483_
*485 _0484_
*486 _0485_
*487 _0486_
*488 _0487_
*489 _0488_
*490 _0489_
*491 _0490_
*492 _0491_
*493 _0492_
*494 _0493_
*495 _0494_
*496 _0495_
*497 _0496_
*498 _0497_
*499 _0498_
*500 _0499_
*501 _0500_
*502 _0501_
*503 _0502_
*504 _0503_
*505 _0504_
*506 _0505_
*507 _0506_
*508 _0507_
*509 _0508_
*510 _0509_
*511 _0510_
*512 _0511_
*513 _0512_
*514 _0513_
*515 _0514_
*516 _0515_
*517 _0516_
*518 _0517_
*519 _0518_
*520 _0519_
*521 _0520_
*522 _0521_
*523 _0522_
*524 _0523_
*525 _0524_
*526 _0525_
*527 _0526_
*528 _0527_
*529 _0528_
*530 _0529_
*531 _0530_
*532 _0531_
*533 _0532_
*534 _0533_
*535 _0534_
*536 _0535_
*537 _0536_
*538 _0537_
*539 _0538_
*540 _0539_
*541 _0540_
*542 _0541_
*543 _0542_
*544 _0543_
*545 _0544_
*546 _0545_
*547 _0546_
*548 _0547_
*549 _0548_
*550 _0549_
*551 _0550_
*552 _0551_
*553 _0552_
*554 _0553_
*555 _0554_
*556 _0555_
*557 _0556_
*558 _0557_
*559 _0558_
*560 _0559_
*561 _0560_
*562 _0561_
*563 _0562_
*564 _0563_
*565 _0564_
*566 _0565_
*567 _0566_
*568 _0567_
*569 _0568_
*570 _0569_
*571 _0570_
*572 _0571_
*573 _0572_
*574 _0573_
*575 _0574_
*576 _0575_
*577 net152
*578 net30
*579 clock
*580 io_address_0_PAD
*581 io_address_1_PAD
*582 io_address_2_PAD
*583 io_clock_PAD
*584 io_gpio_0_PAD
*585 io_gpio_1_PAD
*586 io_gpio_2_PAD
*587 io_gpio_3_PAD
*588 io_gpio_4_PAD
*589 io_gpio_5_PAD
*590 io_gpio_6_PAD
*591 io_gpio_7_PAD
*592 io_i2c_interrupt_PAD
*593 io_i2c_scl_PAD
*594 io_i2c_sda_PAD
*595 io_reset_PAD
*596 reset
*597 sg13g2_IOPad_io_address_0_p2c
*598 sg13g2_IOPad_io_address_1_p2c
*599 sg13g2_IOPad_io_address_2_p2c
*600 sg13g2_IOPad_io_gpio_0_c2p
*601 sg13g2_IOPad_io_gpio_0_c2p_en
*602 sg13g2_IOPad_io_gpio_0_p2c
*603 sg13g2_IOPad_io_gpio_1_c2p
*604 sg13g2_IOPad_io_gpio_1_c2p_en
*605 sg13g2_IOPad_io_gpio_1_p2c
*606 sg13g2_IOPad_io_gpio_2_c2p
*607 sg13g2_IOPad_io_gpio_2_c2p_en
*608 sg13g2_IOPad_io_gpio_2_p2c
*609 sg13g2_IOPad_io_gpio_3_c2p
*610 sg13g2_IOPad_io_gpio_3_c2p_en
*611 sg13g2_IOPad_io_gpio_3_p2c
*612 sg13g2_IOPad_io_gpio_4_c2p
*613 sg13g2_IOPad_io_gpio_4_c2p_en
*614 sg13g2_IOPad_io_gpio_4_p2c
*615 sg13g2_IOPad_io_gpio_5_c2p
*616 sg13g2_IOPad_io_gpio_5_c2p_en
*617 sg13g2_IOPad_io_gpio_5_p2c
*618 sg13g2_IOPad_io_gpio_6_c2p
*619 sg13g2_IOPad_io_gpio_6_c2p_en
*620 sg13g2_IOPad_io_gpio_6_p2c
*621 sg13g2_IOPad_io_gpio_7_c2p
*622 sg13g2_IOPad_io_gpio_7_c2p_en
*623 sg13g2_IOPad_io_gpio_7_p2c
*624 sg13g2_IOPad_io_i2c_scl_p2c
*625 sg13g2_IOPad_io_i2c_sda_p2c
*626 system_expander\.gpioCtrl_1\.io_gpio_pins_read_buffercc_io_dataOut\[0\]
*627 system_expander\.gpioCtrl_1\.io_gpio_pins_read_buffercc_io_dataOut\[1\]
*628 system_expander\.gpioCtrl_1\.io_gpio_pins_read_buffercc_io_dataOut\[2\]
*629 system_expander\.gpioCtrl_1\.io_gpio_pins_read_buffercc_io_dataOut\[3\]
*630 system_expander\.gpioCtrl_1\.io_gpio_pins_read_buffercc_io_dataOut\[4\]
*631 system_expander\.gpioCtrl_1\.io_gpio_pins_read_buffercc_io_dataOut\[5\]
*632 system_expander\.gpioCtrl_1\.io_gpio_pins_read_buffercc_io_dataOut\[6\]
*633 system_expander\.gpioCtrl_1\.io_gpio_pins_read_buffercc_io_dataOut\[7\]
*634 system_expander\.gpioCtrl_1\.last\[0\]
*635 system_expander\.gpioCtrl_1\.last\[1\]
*636 system_expander\.gpioCtrl_1\.last\[2\]
*637 system_expander\.gpioCtrl_1\.last\[3\]
*638 system_expander\.gpioCtrl_1\.last\[4\]
*639 system_expander\.gpioCtrl_1\.last\[5\]
*640 system_expander\.gpioCtrl_1\.last\[6\]
*641 system_expander\.gpioCtrl_1\.last\[7\]
*642 system_expander\.i2cConfig_latch
*643 system_expander\.i2cConfig_latchedAddress\[0\]
*644 system_expander\.i2cConfig_latchedAddress\[1\]
*645 system_expander\.i2cConfig_latchedAddress\[2\]
*646 system_expander\.i2cCtrl_io_cmd_payload_data\[0\]
*647 system_expander\.i2cCtrl_io_cmd_payload_data\[1\]
*648 system_expander\.i2cCtrl_io_cmd_payload_data\[2\]
*649 system_expander\.i2cCtrl_io_cmd_payload_data\[3\]
*650 system_expander\.i2cCtrl_io_cmd_payload_data\[4\]
*651 system_expander\.i2cCtrl_io_cmd_payload_data\[5\]
*652 system_expander\.i2cCtrl_io_cmd_payload_data\[6\]
*653 system_expander\.i2cCtrl_io_cmd_payload_data\[7\]
*654 system_expander\.i2cCtrl_io_cmd_payload_read
*655 system_expander\.i2cCtrl_io_cmd_payload_reg
*656 system_expander\.i2cCtrl_io_cmd_ready
*657 system_expander\.i2cCtrl_io_cmd_valid
*658 system_expander\.i2cCtrl_io_i2c_interrupts\[0\]
*659 system_expander\.i2cCtrl_io_i2c_scl_write
*660 system_expander\.i2cCtrl_io_i2c_sda_write
*661 system_expander\.i2cCtrl_io_interrupts\[0\]
*662 system_expander\.i2cCtrl_io_rsp_ready
*663 system_expander\.i2cCtrl_io_rsp_valid
*664 system_expander\.irq_fall_ctrl\.io_masks\[0\]
*665 system_expander\.irq_fall_ctrl\.io_masks\[1\]
*666 system_expander\.irq_fall_ctrl\.io_masks\[2\]
*667 system_expander\.irq_fall_ctrl\.io_masks\[3\]
*668 system_expander\.irq_fall_ctrl\.io_masks\[4\]
*669 system_expander\.irq_fall_ctrl\.io_masks\[5\]
*670 system_expander\.irq_fall_ctrl\.io_masks\[6\]
*671 system_expander\.irq_fall_ctrl\.io_masks\[7\]
*672 system_expander\.irq_fall_ctrl\.pendings\[0\]
*673 system_expander\.irq_fall_ctrl\.pendings\[1\]
*674 system_expander\.irq_fall_ctrl\.pendings\[2\]
*675 system_expander\.irq_fall_ctrl\.pendings\[3\]
*676 system_expander\.irq_fall_ctrl\.pendings\[4\]
*677 system_expander\.irq_fall_ctrl\.pendings\[5\]
*678 system_expander\.irq_fall_ctrl\.pendings\[6\]
*679 system_expander\.irq_fall_ctrl\.pendings\[7\]
*680 system_expander\.irq_high_ctrl\.io_masks\[0\]
*681 system_expander\.irq_high_ctrl\.io_masks\[1\]
*682 system_expander\.irq_high_ctrl\.io_masks\[2\]
*683 system_expander\.irq_high_ctrl\.io_masks\[3\]
*684 system_expander\.irq_high_ctrl\.io_masks\[4\]
*685 system_expander\.irq_high_ctrl\.io_masks\[5\]
*686 system_expander\.irq_high_ctrl\.io_masks\[6\]
*687 system_expander\.irq_high_ctrl\.io_masks\[7\]
*688 system_expander\.irq_high_ctrl\.pendings\[0\]
*689 system_expander\.irq_high_ctrl\.pendings\[1\]
*690 system_expander\.irq_high_ctrl\.pendings\[2\]
*691 system_expander\.irq_high_ctrl\.pendings\[3\]
*692 system_expander\.irq_high_ctrl\.pendings\[4\]
*693 system_expander\.irq_high_ctrl\.pendings\[5\]
*694 system_expander\.irq_high_ctrl\.pendings\[6\]
*695 system_expander\.irq_high_ctrl\.pendings\[7\]
*696 system_expander\.irq_low_ctrl\.io_masks\[0\]
*697 system_expander\.irq_low_ctrl\.io_masks\[1\]
*698 system_expander\.irq_low_ctrl\.io_masks\[2\]
*699 system_expander\.irq_low_ctrl\.io_masks\[3\]
*700 system_expander\.irq_low_ctrl\.io_masks\[4\]
*701 system_expander\.irq_low_ctrl\.io_masks\[5\]
*702 system_expander\.irq_low_ctrl\.io_masks\[6\]
*703 system_expander\.irq_low_ctrl\.io_masks\[7\]
*704 system_expander\.irq_low_ctrl\.pendings\[0\]
*705 system_expander\.irq_low_ctrl\.pendings\[1\]
*706 system_expander\.irq_low_ctrl\.pendings\[2\]
*707 system_expander\.irq_low_ctrl\.pendings\[3\]
*708 system_expander\.irq_low_ctrl\.pendings\[4\]
*709 system_expander\.irq_low_ctrl\.pendings\[5\]
*710 system_expander\.irq_low_ctrl\.pendings\[6\]
*711 system_expander\.irq_low_ctrl\.pendings\[7\]
*712 system_expander\.irq_rise_ctrl\.io_masks\[0\]
*713 system_expander\.irq_rise_ctrl\.io_masks\[1\]
*714 system_expander\.irq_rise_ctrl\.io_masks\[2\]
*715 system_expander\.irq_rise_ctrl\.io_masks\[3\]
*716 system_expander\.irq_rise_ctrl\.io_masks\[4\]
*717 system_expander\.irq_rise_ctrl\.io_masks\[5\]
*718 system_expander\.irq_rise_ctrl\.io_masks\[6\]
*719 system_expander\.irq_rise_ctrl\.io_masks\[7\]
*720 system_expander\.irq_rise_ctrl\.pendings\[0\]
*721 system_expander\.irq_rise_ctrl\.pendings\[1\]
*722 system_expander\.irq_rise_ctrl\.pendings\[2\]
*723 system_expander\.irq_rise_ctrl\.pendings\[3\]
*724 system_expander\.irq_rise_ctrl\.pendings\[4\]
*725 system_expander\.irq_rise_ctrl\.pendings\[5\]
*726 system_expander\.irq_rise_ctrl\.pendings\[6\]
*727 system_expander\.irq_rise_ctrl\.pendings\[7\]
*728 system_expander\.link_data\[0\]
*729 system_expander\.link_data\[1\]
*730 system_expander\.link_data\[2\]
*731 system_expander\.link_data\[3\]
*732 system_expander\.link_data\[4\]
*733 system_expander\.link_data\[5\]
*734 system_expander\.link_data\[6\]
*735 system_expander\.link_data\[7\]
*736 system_expander\.link_error
*737 system_expander\.link_regAddr\[0\]
*738 system_expander\.link_regAddr\[1\]
*739 system_expander\.link_regAddr\[2\]
*740 system_expander\.link_regAddr\[3\]
*741 system_expander\.link_regAddr\[4\]
*742 system_expander\.link_regAddr\[5\]
*743 system_expander\.link_regAddr\[6\]
*744 system_expander\.link_regAddr\[7\]
*745 system_expander\.link_state\[0\]
*746 system_expander\.link_state\[1\]
*747 system_expander\.link_state\[2\]
*748 system_expander\.link_state\[3\]
*749 system_expander\.link_state\[4\]
*755 net
*756 net1
*757 net2
*758 net3
*759 net4
*760 net5
*761 net6
*762 net7
*763 net8
*764 net9
*765 net10
*766 net11
*767 net12
*768 net13
*769 net14
*770 net15
*771 net16
*772 net17
*773 net18
*774 net19
*775 net20
*776 net21
*777 net22
*778 net23
*779 net24
*780 net25
*781 net26
*782 net27
*783 net28
*784 net29
*785 net31
*786 net32
*787 net33
*788 net34
*789 net35
*790 net36
*791 net37
*792 net38
*793 net39
*794 net40
*795 net41
*796 net42
*797 net43
*798 net44
*799 net45
*800 net46
*801 net47
*802 net48
*803 net49
*804 net50
*805 net51
*806 net52
*807 net53
*808 net54
*809 net55
*810 net56
*811 net57
*812 net58
*813 net59
*814 net60
*815 net61
*816 net62
*817 net63
*818 net64
*819 net65
*820 net66
*821 net67
*822 net68
*823 net69
*824 net70
*825 net71
*826 net72
*827 net73
*828 net74
*829 net75
*830 net76
*831 net77
*832 net78
*833 net79
*834 net80
*835 net81
*836 net82
*837 net83
*838 net84
*839 net85
*840 net86
*841 net87
*842 net88
*843 net89
*844 net90
*845 net91
*846 net92
*847 net93
*848 net94
*849 net95
*850 net96
*851 net97
*852 net98
*853 net99
*854 net100
*855 net101
*856 net102
*857 net103
*858 net104
*859 net105
*860 net106
*861 net107
*862 net108
*863 net109
*864 net110
*865 net111
*866 net112
*867 net113
*868 net114
*869 net115
*870 net116
*871 net117
*872 net118
*873 net119
*874 net120
*875 net121
*876 net122
*877 net123
*878 net124
*879 net125
*880 net126
*881 net127
*882 net128
*883 net129
*884 net130
*885 net131
*886 net132
*887 net133
*888 net134
*889 net135
*890 net136
*891 net137
*892 net138
*893 net139
*894 net140
*895 net141
*896 net142
*897 net143
*898 net144
*899 net145
*900 net146
*901 net147
*902 net148
*903 net149
*904 net150
*905 net151
*906 net153
*907 net154
*908 net155
*909 net156
*910 net157
*911 net158
*912 net159
*916 net325
*917 net326
*918 net327
*919 net328
*920 clknet_4_9_0_clock_regs
*921 net276
*922 net278
*923 net277
*924 net279
*925 net321
*926 clknet_4_1_0_clock_regs
*927 clknet_4_0_0_clock_regs
*928 clknet_4_3_0_clock_regs
*929 clknet_4_6_0_clock_regs
*930 clknet_4_11_0_clock_regs
*931 clknet_4_12_0_clock_regs
*932 clknet_4_13_0_clock_regs
*933 clknet_4_14_0_clock_regs
*934 clknet_4_15_0_clock_regs
*935 clknet_5_0__leaf_clock_regs
*936 clknet_5_1__leaf_clock_regs
*937 clknet_5_2__leaf_clock_regs
*938 clknet_5_3__leaf_clock_regs
*939 clknet_5_4__leaf_clock_regs
*940 clknet_5_5__leaf_clock_regs
*941 clknet_5_6__leaf_clock_regs
*942 clknet_5_7__leaf_clock_regs
*943 clknet_5_8__leaf_clock_regs
*944 clknet_5_9__leaf_clock_regs
*945 clknet_5_10__leaf_clock_regs
*946 clknet_5_11__leaf_clock_regs
*947 clknet_5_12__leaf_clock_regs
*948 clknet_5_13__leaf_clock_regs
*949 clknet_5_14__leaf_clock_regs
*950 clknet_5_15__leaf_clock_regs
*951 clknet_5_16__leaf_clock_regs
*952 clknet_5_17__leaf_clock_regs
*953 clknet_5_18__leaf_clock_regs
*954 clknet_5_19__leaf_clock_regs
*955 clknet_5_20__leaf_clock_regs
*956 clknet_5_21__leaf_clock_regs
*957 clknet_5_22__leaf_clock_regs
*958 clknet_5_23__leaf_clock_regs
*959 clknet_5_24__leaf_clock_regs
*960 clknet_5_25__leaf_clock_regs
*961 clknet_5_26__leaf_clock_regs
*962 clknet_5_27__leaf_clock_regs
*963 clknet_5_28__leaf_clock_regs
*964 clknet_5_29__leaf_clock_regs
*965 clknet_5_30__leaf_clock_regs
*966 clknet_5_31__leaf_clock_regs
*967 delaynet_0_clk_core
*968 delaynet_1_clk_core
*969 delaynet_2_clk_core
*970 place325
*971 _0579_
*972 _0580_
*973 _0581_
*974 _0582_
*975 _0583_
*976 _0584_
*977 clkbuf_4_8_0_clock_regs
*978 _0586_
*979 place324
*980 _0588_
*981 _0589_
*982 _0590_
*983 place323
*984 _0592_
*985 _0593_
*986 _0594_
*987 _0595_
*988 clkbuf_4_10_0_clock_regs
*989 _0597_
*990 place300
*991 place298
*992 _0600_
*993 clkbuf_regs_0_clk_core
*994 _0602_
*995 _0603_
*996 place299
*997 _0605_
*998 _0606_
*999 place330
*1000 place317
*1001 place316
*1002 _0610_
*1003 place315
*1004 _0612_
*1005 _0613_
*1006 _0614_
*1007 _0615_
*1008 place314
*1009 _0617_
*1010 place313
*1011 _0619_
*1012 _0620_
*1013 _0621_
*1014 _0622_
*1015 place312
*1016 _0624_
*1017 _0625_
*1018 _0626_
*1019 _0627_
*1020 _0628_
*1021 place311
*1022 clkbuf_4_7_0_clock_regs
*1023 place310
*1024 _0632_
*1025 _0633_
*1026 _0634_
*1027 clkbuf_4_5_0_clock_regs
*1028 _0636_
*1029 _0637_
*1030 _0638_
*1031 _0639_
*1032 _0640_
*1033 clkbuf_0_clock
*1034 _0642_
*1035 _0643_
*1036 _0644_
*1037 place318
*1038 _0646_
*1039 _0647_
*1040 _0648_
*1041 _0649_
*1042 _0650_
*1043 _0651_
*1044 _0652_
*1045 place309
*1046 _0654_
*1047 _0655_
*1048 place308
*1049 _0657_
*1050 _0658_
*1051 _0659_
*1052 _0660_
*1053 _0661_
*1054 _0662_
*1055 _0663_
*1056 _0664_
*1057 place307
*1058 _0666_
*1059 _0667_
*1060 _0668_
*1061 clkbuf_4_4_0_clock_regs
*1062 place319
*1063 _0671_
*1064 _0672_
*1065 _0673_
*1066 _0674_
*1067 _0675_
*1068 _0676_
*1069 _0677_
*1070 _0678_
*1071 _0679_
*1072 _0680_
*1073 _0681_
*1074 _0682_
*1075 _0683_
*1076 _0684_
*1077 _0685_
*1078 _0686_
*1079 _0687_
*1080 place304
*1081 _0689_
*1082 _0690_
*1083 _0691_
*1084 _0692_
*1085 _0693_
*1086 _0694_
*1087 _0695_
*1088 _0696_
*1089 clkbuf_0_clock_regs
*1090 clkbuf_1_0__f_clock
*1091 _0699_
*1092 _0700_
*1093 _0701_
*1094 _0702_
*1095 _0703_
*1096 _0704_
*1097 _0705_
*1098 _0706_
*1099 _0707_
*1100 _0708_
*1101 _0709_
*1102 _0710_
*1103 _0711_
*1104 _0712_
*1105 _0713_
*1106 _0714_
*1107 _0715_
*1108 _0716_
*1109 _0717_
*1110 _0718_
*1111 _0719_
*1112 _0720_
*1113 _0721_
*1114 place303
*1115 _0723_
*1116 clkbuf_4_2_0_clock_regs
*1117 _0725_
*1118 place306
*1119 place305
*1120 place301
*1121 _0729_
*1122 _0730_
*1123 place321
*1124 _0732_
*1125 _0733_
*1126 _0734_
*1127 _0735_
*1128 _0736_
*1129 _0737_
*1130 _0738_
*1131 _0739_
*1132 _0740_
*1133 _0741_
*1134 _0742_
*1135 _0743_
*1136 _0744_
*1137 _0745_
*1138 _0746_
*1139 _0747_
*1140 _0748_
*1141 _0749_
*1142 _0750_
*1143 _0751_
*1144 _0752_
*1145 _0753_
*1146 _0754_
*1147 _0755_
*1148 _0756_
*1149 _0757_
*1150 _0758_
*1151 _0759_
*1152 _0760_
*1153 _0761_
*1154 _0762_
*1155 _0763_
*1156 _0764_
*1157 place320
*1158 place296
*1159 _0767_
*1160 _0768_
*1161 _0769_
*1162 _0770_
*1163 _0771_
*1164 _0772_
*1165 _0773_
*1166 _0774_
*1167 _0775_
*1168 _0776_
*1169 _0777_
*1170 _0778_
*1171 _0779_
*1172 _0780_
*1173 _0781_
*1174 _0782_
*1175 _0783_
*1176 _0784_
*1177 _0785_
*1178 _0786_
*1179 _0787_
*1180 _0788_
*1181 _0789_
*1182 _0790_
*1183 _0791_
*1184 _0792_
*1185 place295
*1186 _0794_
*1187 _0795_
*1188 _0796_
*1189 _0797_
*1190 _0798_
*1191 _0799_
*1192 _0800_
*1193 place294
*1194 _0802_
*1195 _0803_
*1196 _0804_
*1197 _0805_
*1198 _0806_
*1199 _0807_
*1200 _0808_
*1201 _0809_
*1202 _0810_
*1203 _0811_
*1204 _0812_
*1205 _0813_
*1206 _0814_
*1207 _0815_
*1208 _0816_
*1209 _0817_
*1210 _0818_
*1211 _0819_
*1212 _0820_
*1213 _0821_
*1214 _0822_
*1215 _0823_
*1216 _0824_
*1217 _0825_
*1218 _0826_
*1219 place302
*1220 place293
*1221 _0829_
*1222 _0830_
*1223 _0831_
*1224 _0832_
*1225 _0833_
*1226 place297
*1227 _0835_
*1228 _0836_
*1229 _0837_
*1230 _0838_
*1231 _0839_
*1232 _0840_
*1233 _0841_
*1234 _0842_
*1235 _0843_
*1236 _0844_
*1237 _0845_
*1238 _0846_
*1239 _0847_
*1240 _0848_
*1241 _0849_
*1242 _0850_
*1243 _0851_
*1244 _0852_
*1245 _0853_
*1246 _0854_
*1247 _0855_
*1248 _0856_
*1249 _0857_
*1250 _0858_
*1251 _0859_
*1252 _0860_
*1253 _0861_
*1254 _0862_
*1255 place292
*1256 _0864_
*1257 _0865_
*1258 _0866_
*1259 _0867_
*1260 _0868_
*1261 _0869_
*1262 _0870_
*1263 _0871_
*1264 _0872_
*1265 _0873_
*1266 _0874_
*1267 _0875_
*1268 place291
*1269 _0877_
*1270 _0878_
*1271 _0879_
*1272 _0880_
*1273 _0881_
*1274 _0882_
*1275 _0883_
*1276 _0884_
*1277 _0885_
*1278 _0886_
*1279 _0887_
*1280 _0888_
*1281 _0889_
*1282 _0890_
*1283 _0891_
*1284 _0892_
*1285 _0893_
*1286 _0894_
*1287 place290
*1288 _0896_
*1289 _0897_
*1290 _0898_
*1291 _0899_
*1292 _0900_
*1293 _0901_
*1294 _0902_
*1295 _0903_
*1296 _0904_
*1297 _0905_
*1298 place288
*1299 _0907_
*1300 place289
*1301 _0909_
*1302 _0910_
*1303 _0911_
*1304 _0912_
*1305 _0913_
*1306 _0914_
*1307 _0915_
*1308 _0916_
*1309 _0917_
*1310 _0918_
*1311 _0919_
*1312 _0920_
*1313 _0921_
*1314 _0922_
*1315 _0923_
*1316 _0924_
*1317 _0925_
*1318 _0926_
*1319 _0927_
*1320 _0928_
*1321 _0929_
*1322 _0930_
*1323 _0931_
*1324 _0932_
*1325 _0933_
*1326 _0934_
*1327 _0935_
*1328 _0936_
*1329 _0937_
*1330 _0938_
*1331 _0939_
*1332 _0940_
*1333 place287
*1334 place285
*1335 _0943_
*1336 _0944_
*1337 _0945_
*1338 _0946_
*1339 _0947_
*1340 _0948_
*1341 _0949_
*1342 _0950_
*1343 _0951_
*1344 _0952_
*1345 _0953_
*1346 _0954_
*1347 _0955_
*1348 _0956_
*1349 _0957_
*1350 _0958_
*1351 _0959_
*1352 _0960_
*1353 _0961_
*1354 _0962_
*1355 _0963_
*1356 _0964_
*1357 _0965_
*1358 _0966_
*1359 _0967_
*1360 _0968_
*1361 _0969_
*1362 _0970_
*1363 place286
*1364 _0972_
*1365 _0973_
*1366 _0974_
*1367 _0975_
*1368 _0976_
*1369 _0977_
*1370 _0978_
*1371 _0979_
*1372 place282
*1373 _0981_
*1374 _0982_
*1375 _0983_
*1376 _0984_
*1377 _0985_
*1378 _0986_
*1379 _0987_
*1380 _0988_
*1381 _0989_
*1382 _0990_
*1383 _0991_
*1384 _0992_
*1385 place284
*1386 _0994_
*1387 _0995_
*1388 _0996_
*1389 _0997_
*1390 _0998_
*1391 _0999_
*1392 _1000_
*1393 _1001_
*1394 place281
*1395 _1003_
*1396 _1004_
*1397 _1005_
*1398 _1006_
*1399 _1007_
*1400 _1008_
*1401 _1009_
*1402 _1010_
*1403 _1011_
*1404 _1012_
*1405 _1013_
*1406 _1014_
*1407 _1015_
*1408 place283
*1409 _1017_
*1410 _1018_
*1411 _1019_
*1412 _1020_
*1413 _1021_
*1414 _1022_
*1415 _1023_
*1416 _1024_
*1417 _1025_
*1418 _1026_
*1419 _1027_
*1420 _1028_
*1421 _1029_
*1422 _1030_
*1423 _1031_
*1424 _1032_
*1425 _1033_
*1426 _1034_
*1427 _1035_
*1428 _1036_
*1429 _1037_
*1430 _1038_
*1431 _1039_
*1432 _1040_
*1433 _1041_
*1434 _1042_
*1435 _1043_
*1436 _1044_
*1437 _1045_
*1438 _1046_
*1439 _1047_
*1440 _1048_
*1441 _1049_
*1442 _1050_
*1443 _1051_
*1444 _1052_
*1445 _1053_
*1446 _1054_
*1447 _1055_
*1448 _1056_
*1449 _1057_
*1450 _1058_
*1451 _1059_
*1452 _1060_
*1453 _1061_
*1454 _1062_
*1455 _1063_
*1456 _1064_
*1457 _1065_
*1458 _1066_
*1459 _1067_
*1460 _1068_
*1461 _1069_
*1462 _1070_
*1463 _1071_
*1464 _1072_
*1465 _1073_
*1466 _1074_
*1467 _1075_
*1468 _1076_
*1469 _1077_
*1470 _1078_
*1471 _1079_
*1472 _1080_
*1473 _1081_
*1474 _1082_
*1475 _1083_
*1476 _1084_
*1477 _1085_
*1478 _1086_
*1479 _1087_
*1480 _1088_
*1481 _1089_
*1482 _1090_
*1483 _1091_
*1484 _1092_
*1485 _1093_
*1486 _1094_
*1487 _1095_
*1488 _1096_
*1489 _1097_
*1490 _1098_
*1491 _1099_
*1492 _1100_
*1493 _1101_
*1494 _1102_
*1495 _1103_
*1496 _1104_
*1497 _1105_
*1498 _1106_
*1499 _1107_
*1500 _1108_
*1501 _1109_
*1502 _1110_
*1503 _1111_
*1504 _1112_
*1505 _1113_
*1506 _1114_
*1507 _1115_
*1508 _1116_
*1509 _1117_
*1510 _1118_
*1511 _1119_
*1512 _1120_
*1513 _1121_
*1514 _1122_
*1515 _1123_
*1516 _1124_
*1517 _1125_
*1518 _1126_
*1519 _1127_
*1520 _1128_
*1521 _1129_
*1522 _1130_
*1523 _1131_
*1524 _1132_
*1525 _1133_
*1526 _1134_
*1527 _1135_
*1528 _1136_
*1529 _1137_
*1530 _1138_
*1531 _1139_
*1532 _1140_
*1533 _1141_
*1534 _1142_
*1535 _1143_
*1536 _1144_
*1537 _1145_
*1538 _1146_
*1539 _1147_
*1540 _1148_
*1541 _1149_
*1542 _1150_
*1543 _1151_
*1544 _1152_
*1545 _1153_
*1546 _1154_
*1547 _1155_
*1548 _1156_
*1549 system_expander\.gpioCtrl_1\.io_gpio_pins_read_buffercc/buffers_0\[0\]\$_DFF_P__153
*1550 system_expander\.gpioConfig_direction\[0\]\$_SDFFE_PN0P__31
*1551 sg13g2_IOPad_io_address_0
*1552 sg13g2_IOPad_io_address_1
*1553 sg13g2_IOPad_io_address_2
*1554 sg13g2_IOPad_io_clock
*1555 sg13g2_IOPad_io_gpio_0
*1556 sg13g2_IOPad_io_gpio_1
*1557 sg13g2_IOPad_io_gpio_2
*1558 sg13g2_IOPad_io_gpio_3
*1559 sg13g2_IOPad_io_gpio_4
*1560 sg13g2_IOPad_io_gpio_5
*1561 sg13g2_IOPad_io_gpio_6
*1562 sg13g2_IOPad_io_gpio_7
*1563 sg13g2_IOPad_io_i2c_interrupt
*1564 sg13g2_IOPad_io_i2c_scl
*1565 sg13g2_IOPad_io_i2c_sda
*1566 sg13g2_IOPad_io_reset
*1567 system_expander\.gpioConfig_direction\[0\]\$_SDFFE_PN0P_
*1568 system_expander\.gpioConfig_direction\[1\]\$_SDFFE_PN0P_
*1569 system_expander\.gpioConfig_direction\[2\]\$_SDFFE_PN0P_
*1570 system_expander\.gpioConfig_direction\[3\]\$_SDFFE_PN0P_
*1571 system_expander\.gpioConfig_direction\[4\]\$_SDFFE_PN0P_
*1572 system_expander\.gpioConfig_direction\[5\]\$_SDFFE_PN0P_
*1573 system_expander\.gpioConfig_direction\[6\]\$_SDFFE_PN0P_
*1574 system_expander\.gpioConfig_direction\[7\]\$_SDFFE_PN0P_
*1575 system_expander\.gpioConfig_write\[0\]\$_SDFFE_PN0P_
*1576 system_expander\.gpioConfig_write\[1\]\$_SDFFE_PN0P_
*1577 system_expander\.gpioConfig_write\[2\]\$_SDFFE_PN0P_
*1578 system_expander\.gpioConfig_write\[3\]\$_SDFFE_PN0P_
*1579 system_expander\.gpioConfig_write\[4\]\$_SDFFE_PN0P_
*1580 system_expander\.gpioConfig_write\[5\]\$_SDFFE_PN0P_
*1581 system_expander\.gpioConfig_write\[6\]\$_SDFFE_PN0P_
*1582 system_expander\.gpioConfig_write\[7\]\$_SDFFE_PN0P_
*1583 place326
*1584 system_expander\.gpioCtrl_1\.io_gpio_pins_read_buffercc/buffers_0\[0\]\$_DFF_P_
*1585 system_expander\.gpioCtrl_1\.io_gpio_pins_read_buffercc/buffers_0\[1\]\$_DFF_P_
*1586 system_expander\.gpioCtrl_1\.io_gpio_pins_read_buffercc/buffers_0\[2\]\$_DFF_P_
*1587 system_expander\.gpioCtrl_1\.io_gpio_pins_read_buffercc/buffers_0\[3\]\$_DFF_P_
*1588 system_expander\.gpioCtrl_1\.io_gpio_pins_read_buffercc/buffers_0\[4\]\$_DFF_P_
*1589 system_expander\.gpioCtrl_1\.io_gpio_pins_read_buffercc/buffers_0\[5\]\$_DFF_P_
*1590 system_expander\.gpioCtrl_1\.io_gpio_pins_read_buffercc/buffers_0\[6\]\$_DFF_P_
*1591 system_expander\.gpioCtrl_1\.io_gpio_pins_read_buffercc/buffers_0\[7\]\$_DFF_P_
*1592 system_expander\.gpioCtrl_1\.last\[0\]\$_DFF_P_
*1593 system_expander\.gpioCtrl_1\.last\[1\]\$_DFF_P_
*1594 system_expander\.gpioCtrl_1\.last\[2\]\$_DFF_P_
*1595 system_expander\.gpioCtrl_1\.last\[3\]\$_DFF_P_
*1596 system_expander\.gpioCtrl_1\.last\[4\]\$_DFF_P_
*1597 system_expander\.gpioCtrl_1\.last\[5\]\$_DFF_P_
*1598 system_expander\.gpioCtrl_1\.last\[6\]\$_DFF_P_
*1599 system_expander\.gpioCtrl_1\.last\[7\]\$_DFF_P_
*1600 system_expander\.i2cConfig_latch\$_DFF_P_
*1601 system_expander\.i2cConfig_latchedAddress\[0\]\$_DFFE_PN_
*1602 system_expander\.i2cConfig_latchedAddress\[1\]\$_DFFE_PN_
*1603 system_expander\.i2cConfig_latchedAddress\[2\]\$_DFFE_PN_
*1604 system_expander\.i2cCtrl
*1605 system_expander\.irq_fall_ctrl\.pendings\[0\]\$_SDFF_PN0_
*1606 system_expander\.irq_fall_ctrl\.pendings\[1\]\$_SDFF_PN0_
*1607 system_expander\.irq_fall_ctrl\.pendings\[2\]\$_SDFF_PN0_
*1608 system_expander\.irq_fall_ctrl\.pendings\[3\]\$_SDFF_PN0_
*1609 system_expander\.irq_fall_ctrl\.pendings\[4\]\$_SDFF_PN0_
*1610 system_expander\.irq_fall_ctrl\.pendings\[5\]\$_SDFF_PN0_
*1611 system_expander\.irq_fall_ctrl\.pendings\[6\]\$_SDFF_PN0_
*1612 system_expander\.irq_fall_ctrl\.pendings\[7\]\$_SDFF_PN0_
*1613 system_expander\.irq_fall_masks\[0\]\$_SDFFE_PN0P_
*1614 system_expander\.irq_fall_masks\[1\]\$_SDFFE_PN0P_
*1615 system_expander\.irq_fall_masks\[2\]\$_SDFFE_PN0P_
*1616 system_expander\.irq_fall_masks\[3\]\$_SDFFE_PN0P_
*1617 system_expander\.irq_fall_masks\[4\]\$_SDFFE_PN0P_
*1618 system_expander\.irq_fall_masks\[5\]\$_SDFFE_PN0P_
*1619 system_expander\.irq_fall_masks\[6\]\$_SDFFE_PN0P_
*1620 system_expander\.irq_fall_masks\[7\]\$_SDFFE_PN0P_
*1621 system_expander\.irq_high_ctrl\.pendings\[0\]\$_SDFF_PN0_
*1622 system_expander\.irq_high_ctrl\.pendings\[1\]\$_SDFF_PN0_